# generated using pymatgen
data_TiO3
_symmetry_space_group_name_H-M   'P 1'
_cell_length_a   4.02606153
_cell_length_b   4.03239441
_cell_length_c   4.02216864
_cell_angle_alpha   90.00770569
_cell_angle_beta   89.85942841
_cell_angle_gamma   89.94335938
_symmetry_Int_Tables_number   1
_chemical_formula_structural   TiO3
_chemical_formula_sum   'Ti1 O3'
_cell_volume   65.29834350
_cell_formula_units_Z   1
loop_
 _symmetry_equiv_pos_site_id
 _symmetry_equiv_pos_as_xyz
  1  'x, y, z'
loop_
 _atom_site_type_symbol
 _atom_site_label
 _atom_site_symmetry_multiplicity
 _atom_site_fract_x
 _atom_site_fract_y
 _atom_site_fract_z
 _atom_site_occupancy
  Ti  Ti0  1  0.36465421  0.64717132  0.39313573  1
  O  O1  1  0.36408073  0.14794202  0.31154063  1
  O  O2  1  0.36433589  0.64765853  0.84051603  1
  O  O3  1  0.86450654  0.64807767  0.31345534  1
