# generated using pymatgen
data_TiO3
_symmetry_space_group_name_H-M   'P 1'
_cell_length_a   3.98573565
_cell_length_b   3.98940682
_cell_length_c   3.97781396
_cell_angle_alpha   90.05349731
_cell_angle_beta   89.96047974
_cell_angle_gamma   89.97154999
_symmetry_Int_Tables_number   1
_chemical_formula_structural   TiO3
_chemical_formula_sum   'Ti1 O3'
_cell_volume   63.25005960
_cell_formula_units_Z   1
loop_
 _symmetry_equiv_pos_site_id
 _symmetry_equiv_pos_as_xyz
  1  'x, y, z'
loop_
 _atom_site_type_symbol
 _atom_site_label
 _atom_site_symmetry_multiplicity
 _atom_site_fract_x
 _atom_site_fract_y
 _atom_site_fract_z
 _atom_site_occupancy
  Ti  Ti0  1  0.39558449  0.48258382  0.69670725  1
  O  O1  1  0.89546001  0.48237607  0.86639911  1
  O  O2  1  0.89545816  0.98280513  0.40937504  1
  O  O3  1  0.39556906  0.98234934  0.86640382  1
