# generated using pymatgen
data_RnCl2
_symmetry_space_group_name_H-M   'P 1'
_cell_length_a   4.37768745
_cell_length_b   4.36734343
_cell_length_c   4.36158514
_cell_angle_alpha   89.48344421
_cell_angle_beta   89.54023743
_cell_angle_gamma   90.37381744
_symmetry_Int_Tables_number   1
_chemical_formula_structural   RnCl2
_chemical_formula_sum   'Rn1 Cl2'
_cell_volume   83.38066737
_cell_formula_units_Z   1
loop_
 _symmetry_equiv_pos_site_id
 _symmetry_equiv_pos_as_xyz
  1  'x, y, z'
loop_
 _atom_site_type_symbol
 _atom_site_label
 _atom_site_symmetry_multiplicity
 _atom_site_fract_x
 _atom_site_fract_y
 _atom_site_fract_z
 _atom_site_occupancy
  Rn  Rn0  1  0.31544718  0.94553030  0.45971411  1
  Cl  Cl1  1  0.81596887  0.44861549  0.46314952  1
  Cl  Cl2  1  0.31536019  0.44792596  0.96315700  1
