# generated using pymatgen
data_RnCl2
_symmetry_space_group_name_H-M   'P 1'
_cell_length_a   4.36552954
_cell_length_b   4.35169411
_cell_length_c   4.34699249
_cell_angle_alpha   89.44696045
_cell_angle_beta   89.48571777
_cell_angle_gamma   90.37500000
_symmetry_Int_Tables_number   1
_chemical_formula_structural   RnCl2
_chemical_formula_sum   'Rn1 Cl2'
_cell_volume   82.57277935
_cell_formula_units_Z   1
loop_
 _symmetry_equiv_pos_site_id
 _symmetry_equiv_pos_as_xyz
  1  'x, y, z'
loop_
 _atom_site_type_symbol
 _atom_site_label
 _atom_site_symmetry_multiplicity
 _atom_site_fract_x
 _atom_site_fract_y
 _atom_site_fract_z
 _atom_site_occupancy
  Rn  Rn0  1  0.03422992  0.03067645  0.02860621  1
  Cl  Cl1  1  0.53564233  0.53071058  0.03178981  1
  Cl  Cl2  1  0.03542311  0.53328240  0.53225285  1
