# generated using pymatgen
data_RnCl2
_symmetry_space_group_name_H-M   'P 1'
_cell_length_a   4.45069122
_cell_length_b   4.42244339
_cell_length_c   4.43216372
_cell_angle_alpha   89.56816864
_cell_angle_beta   89.77431488
_cell_angle_gamma   90.37926483
_symmetry_Int_Tables_number   1
_chemical_formula_structural   RnCl2
_chemical_formula_sum   'Rn1 Cl2'
_cell_volume   87.23288510
_cell_formula_units_Z   1
loop_
 _symmetry_equiv_pos_site_id
 _symmetry_equiv_pos_as_xyz
  1  'x, y, z'
loop_
 _atom_site_type_symbol
 _atom_site_label
 _atom_site_symmetry_multiplicity
 _atom_site_fract_x
 _atom_site_fract_y
 _atom_site_fract_z
 _atom_site_occupancy
  Rn  Rn0  1  0.09198149  0.48489308  0.60976803  1
  Cl  Cl1  1  0.59171367  0.48670590  0.61101681  1
  Cl  Cl2  1  0.59026581  0.98495209  0.10902970  1
