# generated using pymatgen
data_RnCl2
_symmetry_space_group_name_H-M   'P 1'
_cell_length_a   4.37581396
_cell_length_b   4.36102438
_cell_length_c   4.35901117
_cell_angle_alpha   89.44960022
_cell_angle_beta   89.51007843
_cell_angle_gamma   90.39079285
_symmetry_Int_Tables_number   1
_chemical_formula_structural   RnCl2
_chemical_formula_sum   'Rn1 Cl2'
_cell_volume   83.17428613
_cell_formula_units_Z   1
loop_
 _symmetry_equiv_pos_site_id
 _symmetry_equiv_pos_as_xyz
  1  'x, y, z'
loop_
 _atom_site_type_symbol
 _atom_site_label
 _atom_site_symmetry_multiplicity
 _atom_site_fract_x
 _atom_site_fract_y
 _atom_site_fract_z
 _atom_site_occupancy
  Rn  Rn0  1  0.68807691  0.12606709  0.73414820  1
  Cl  Cl1  1  0.68790978  0.62817997  0.23694319  1
  Cl  Cl2  1  0.18999630  0.62760985  0.73745388  1
