# generated using pymatgen
data_RnCl2
_symmetry_space_group_name_H-M   'P 1'
_cell_length_a   4.36033010
_cell_length_b   4.35456514
_cell_length_c   4.33997917
_cell_angle_alpha   89.50563049
_cell_angle_beta   89.53410339
_cell_angle_gamma   90.34005737
_symmetry_Int_Tables_number   1
_chemical_formula_structural   RnCl2
_chemical_formula_sum   'Rn1 Cl2'
_cell_volume   82.39738896
_cell_formula_units_Z   1
loop_
 _symmetry_equiv_pos_site_id
 _symmetry_equiv_pos_as_xyz
  1  'x, y, z'
loop_
 _atom_site_type_symbol
 _atom_site_label
 _atom_site_symmetry_multiplicity
 _atom_site_fract_x
 _atom_site_fract_y
 _atom_site_fract_z
 _atom_site_occupancy
  Rn  Rn0  1  0.04505176  0.06423499  0.09880958  1
  Cl  Cl1  1  0.04333897  0.56733102  0.60219646  1
  Cl  Cl2  1  0.54528546  0.56587160  0.10091586  1
